egret/models/tests/transmission_test_instances/acopf_solution_files/pglib_opf_case3_lmbd_acopf_solution.json
{"elements": {"bus": {"1": {"matpower_bustype": "ref", "area": 1.0, "vm": 1.1, "va": 0.0, "base_kv": 240.0, "zone": 1.0, "v_min": 0.9, "v_max": 1.1, "lmp": 37.574719464921394, "qlmp": 6.330809955896888e-09, "pl": 1.1}, "2": {"matpower_bustype": "PV", "area": 1.0, "vm": 0.9261705368424074, "va": 0.12669049215620656, "base_kv": 240.0, "zone": 1.0, "v_min": 0.9, "v_max": 1.1, "lmp": 30.101069856506196, "qlmp": -1.0238323799585612e-09, "pl": 1.1}, "3": {"matpower_bustype": "PV", "area": 1.0, "vm": 0.9, "va": -0.30136769433968996, "base_kv": 240.0, "zone": 1.0, "v_min": 0.9, "v_max": 1.1, "lmp": 45.536477989034964, "qlmp": -6.352005373146987e-10, "pl": 0.95}}, "load": {"load_1": {"in_service": true, "p_load": 11000.0, "q_load": 4000.0, "bus": "1"}, "load_2": {"in_service": true, "p_load": 11000.0, "q_load": 4000.0, "bus": "2"}, "load_3": {"in_service": true, "p_load": 9500.0, "q_load": 5000.0, "bus": "3"}}, "generator": {"1": {"bus": "1", "pg": 148.06690667470335, "qg": 54.69726781885995, "vg": 1.0, "mbase": 100.0, "in_service": true, "p_min": 0.0, "p_max": 200000.0, "q_min": -100000.0, "q_max": 100000.0, "generator_type": "thermal", "p_cost": {"data_type": "cost_curve", "cost_curve_type": "polynomial", "values": {"0": 0.0, "1": 0.05, "2": 1.1000000000000001e-05}}, "startup_cost": 0.0, "shutdown_cost": 0.0}, "2": {"bus": "2", "pg": 170.00629329121432, "qg": -8.791134988541954, "vg": 1.0, "mbase": 100.0, "in_service": true, "p_min": 0.0, "p_max": 200000.0, "q_min": -100000.0, "q_max": 100000.0, "generator_type": "thermal", "p_cost": {"data_type": "cost_curve", "cost_curve_type": "polynomial", "values": {"0": 0.0, "1": 0.012, "2": 8.500000000000002e-06}}, "startup_cost": 0.0, "shutdown_cost": 0.0}, "3": {"bus": "3", "pg": 0.0, "qg": -4.842636765551784, "vg": 1.0, "mbase": 100.0, "in_service": true, "p_min": 0.0, "p_max": 0.0, "q_min": -100000.0, "q_max": 100000.0, "generator_type": "thermal", "p_cost": {"data_type": "cost_curve", "cost_curve_type": "polynomial", "values": {"0": 0.0, "1": 0.0, "2": 0.0}}, "startup_cost": 0.0, "shutdown_cost": 0.0}}, "branch": {"1": {"from_bus": "1", "to_bus": "3", "resistance": 0.065, "reactance": 0.62, "charging_susceptance": 0.45, "branch_type": "line", "rating_long_term": 900000.0, "rating_short_term": 900000.0, "rating_emergency": 900000.0, "in_service": true, "angle_diff_min": -30.0, "angle_diff_max": 30.0, "pf": 51.30711918521791, "qf": 10.076336036309558, "pt": -49.14556828305927, "qt": -34.90846563423724}, "2": {"from_bus": "3", "to_bus": "2", "resistance": 0.025, "reactance": 0.75, "charging_susceptance": 0.7, "branch_type": "line", "rating_long_term": 5000.0, "rating_short_term": 5000.0, "rating_emergency": 5000.0, "in_service": true, "angle_diff_min": -30.0, "angle_diff_max": 30.0, "pf": -45.854431716940724, "qf": -19.93417113131455, "pt": 46.52525119736147, "qt": -18.313959121065228}, "3": {"from_bus": "1", "to_bus": "2", "resistance": 0.042, "reactance": 0.9, "charging_susceptance": 0.3, "branch_type": "line", "rating_long_term": 900000.0, "rating_short_term": 900000.0, "rating_emergency": 900000.0, "in_service": true, "angle_diff_min": -30.0, "angle_diff_max": 30.0, "pf": -13.24021251051457, "qf": 4.62093178255039, "pt": 13.481042093852826, "qt": -30.47717586747673}}}, "system": {"model_name": "pglib_opf_case3_lmbd", "mpc_version": "'2'", "baseMVA": 100.0, "reference_bus": "1", "reference_bus_angle": 0.0, "total_cost": 5812.642938549221}}